Version 4
SHEET 1 2624 680
WIRE -560 32 -1168 32
WIRE -448 32 -560 32
WIRE -288 32 -448 32
WIRE -160 32 -288 32
WIRE 112 32 -160 32
WIRE 288 32 112 32
WIRE 416 32 288 32
WIRE -976 64 -1072 64
WIRE -560 64 -560 32
WIRE -448 80 -448 32
WIRE -288 80 -288 32
WIRE -160 80 -160 32
WIRE 288 80 288 32
WIRE 416 80 416 32
WIRE -1072 96 -1072 64
WIRE -976 96 -976 64
WIRE 112 144 112 32
WIRE -560 160 -560 144
WIRE -1168 192 -1168 32
WIRE -1088 192 -1168 192
WIRE -1072 192 -1072 176
WIRE -1056 192 -1072 192
WIRE -976 192 -976 160
WIRE -976 192 -1024 192
WIRE -160 192 -160 160
WIRE 48 192 -160 192
WIRE 416 192 416 160
WIRE 816 192 416 192
WIRE -1088 224 -1088 192
WIRE -1056 224 -1056 192
WIRE -1024 224 -1024 192
WIRE -160 224 -160 192
WIRE 416 224 416 192
WIRE -1584 256 -1744 256
WIRE -1440 256 -1520 256
WIRE -1120 256 -1232 256
WIRE 1072 256 1040 256
WIRE -448 272 -448 160
WIRE -448 272 -880 272
WIRE -400 272 -448 272
WIRE -288 272 -288 160
WIRE -288 272 -336 272
WIRE -224 272 -288 272
WIRE 112 272 112 240
WIRE 176 272 112 272
WIRE 288 272 288 160
WIRE 288 272 240 272
WIRE 352 272 288 272
WIRE -912 288 -992 288
WIRE -880 288 -880 272
WIRE -880 288 -912 288
WIRE -1440 320 -1440 256
WIRE -1120 320 -1440 320
WIRE -288 320 -288 272
WIRE 288 320 288 272
WIRE -1744 336 -1744 256
WIRE -1440 352 -1440 320
WIRE -160 368 -160 320
WIRE -96 368 -160 368
WIRE 16 368 -16 368
WIRE 416 368 416 320
WIRE 480 368 416 368
WIRE 592 368 560 368
WIRE -160 384 -160 368
WIRE 112 384 112 272
WIRE 416 384 416 368
WIRE -912 400 -912 288
WIRE -896 400 -912 400
WIRE -768 400 -832 400
WIRE 16 400 16 368
WIRE 592 400 592 368
WIRE 1072 448 1040 448
WIRE -1744 512 -1744 416
WIRE -1440 512 -1440 432
WIRE -1440 512 -1744 512
WIRE -1232 512 -1232 256
WIRE -1232 512 -1440 512
WIRE -1088 512 -1088 352
WIRE -1088 512 -1232 512
WIRE -768 512 -768 480
WIRE -768 512 -1088 512
WIRE -448 512 -768 512
WIRE -288 512 -288 400
WIRE -288 512 -448 512
WIRE -160 512 -160 464
WIRE -160 512 -288 512
WIRE 16 512 16 464
WIRE 16 512 -160 512
WIRE 112 512 112 464
WIRE 112 512 16 512
WIRE 288 512 288 400
WIRE 288 512 112 512
WIRE 416 512 416 464
WIRE 416 512 288 512
WIRE 592 512 592 464
WIRE 592 512 416 512
WIRE -448 528 -448 512
FLAG -448 528 0
FLAG -560 160 0
FLAG 1072 448 out
IOPIN 1072 448 Out
FLAG -448 272 In
FLAG 1072 256 rect
IOPIN 1072 256 Out
SYMBOL voltage -1744 320 R0
WINDOW 0 39 58 Left 2
WINDOW 3 -209 13 Left 2
WINDOW 123 -173 51 Left 2
WINDOW 39 0 0 Left 2
SYMATTR InstName Mic
SYMATTR Value SINE(0 0.05m 5k)
SYMATTR Value2 AC 1m
SYMBOL cap -336 256 R90
WINDOW 0 0 32 VBottom 2
WINDOW 3 32 32 VTop 2
SYMATTR InstName C1
SYMATTR Value 1n
SYMBOL voltage -560 48 R0
WINDOW 123 0 0 Left 2
WINDOW 39 0 0 Left 2
SYMATTR InstName V2
SYMATTR Value 5
SYMBOL res -304 64 R0
SYMATTR InstName R2
SYMATTR Value 100k
SYMBOL res -304 304 R0
WINDOW 3 25 104 Left 2
SYMATTR Value 18k
SYMATTR InstName R3
SYMBOL res -176 368 R0
SYMATTR InstName R5
SYMATTR Value 4k7
SYMBOL cap 0 400 R0
SYMATTR InstName C2
SYMATTR Value 100n
SYMBOL npn -224 224 R0
WINDOW 0 14 -9 Left 2
WINDOW 3 39 52 Left 2
SYMATTR InstName Q1
SYMATTR Value 2N3904
SYMBOL res -176 64 R0
SYMATTR InstName R4
SYMATTR Value 47k
SYMBOL res 0 352 R90
WINDOW 0 0 56 VBottom 2
WINDOW 3 32 56 VTop 2
SYMATTR InstName R6
SYMATTR Value 47
SYMBOL res 272 64 R0
SYMATTR InstName R8
SYMATTR Value 100k
SYMBOL res 272 304 R0
WINDOW 3 25 104 Left 2
SYMATTR Value 18k
SYMATTR InstName R9
SYMBOL res 400 368 R0
SYMATTR InstName R11
SYMATTR Value 4k7
SYMBOL cap 576 400 R0
SYMATTR InstName C4
SYMATTR Value 100n
SYMBOL npn 352 224 R0
WINDOW 0 14 -9 Left 2
WINDOW 3 39 44 Left 2
SYMATTR InstName Q3
SYMATTR Value 2N3904
SYMBOL res 400 64 R0
SYMATTR InstName R10
SYMATTR Value 47k
SYMBOL res 576 352 R90
WINDOW 0 0 56 VBottom 2
WINDOW 3 32 56 VTop 2
SYMATTR InstName R12
SYMATTR Value 47
SYMBOL npn 48 144 R0
WINDOW 0 13 -10 Left 2
WINDOW 3 39 47 Left 2
SYMATTR InstName Q2
SYMATTR Value 2N3904
SYMBOL res 96 368 R0
SYMATTR InstName R7
SYMATTR Value 10k
SYMBOL cap 240 256 R90
WINDOW 0 0 32 VBottom 2
WINDOW 3 32 32 VTop 2
SYMATTR InstName C3
SYMATTR Value 1n
SYMBOL res -464 64 R0
SYMATTR InstName R1
SYMATTR Value 10k
SYMBOL Custom\\lm386 -1072 224 R0
SYMATTR InstName U1
SYMBOL cap -992 96 R0
SYMATTR InstName C5
SYMATTR Value 10µ
SYMBOL res -1088 80 R0
SYMATTR InstName R13
SYMATTR Value 0
SYMBOL res -784 384 R0
SYMATTR InstName R14
SYMATTR Value 10
SYMBOL cap -832 384 R90
WINDOW 0 0 32 VBottom 2
WINDOW 3 32 32 VTop 2
SYMATTR InstName C6
SYMATTR Value 0.05µ
SYMBOL Custom\\CD4000\\CD4024B 928 64 R0
SYMATTR InstName U2
SYMBOL cap -1584 272 R270
WINDOW 0 32 32 VTop 2
WINDOW 3 0 32 VBottom 2
SYMATTR InstName C7
SYMATTR Value 1n
SYMBOL res -1456 336 R0
SYMATTR InstName R15
SYMATTR Value 18k
TEXT 616 -192 Left 2 !.inc cd4000.lib
TEXT 600 -128 Left 2 !.tran .02 uic
TEXT 608 -304 Left 2 ;Sim only
RECTANGLE Normal 800 -88 576 -344 2
