Version 4
SHEET 1 2624 792
WIRE -3024 -160 -3136 -160
WIRE -2864 -160 -3024 -160
WIRE -2736 -160 -2864 -160
WIRE -2464 -160 -2736 -160
WIRE -2288 -160 -2464 -160
WIRE -2160 -160 -2288 -160
WIRE -1776 -160 -2160 -160
WIRE -1520 -160 -1776 -160
WIRE -1392 -160 -1520 -160
WIRE -3136 -128 -3136 -160
WIRE -3024 -112 -3024 -160
WIRE -2864 -112 -2864 -160
WIRE -2736 -112 -2736 -160
WIRE -2288 -112 -2288 -160
WIRE -2160 -112 -2160 -160
WIRE -1520 -112 -1520 -160
WIRE -1392 -112 -1392 -160
WIRE -2464 -48 -2464 -160
WIRE -1776 -48 -1776 -160
WIRE -3136 -32 -3136 -48
WIRE -1008 -32 -1104 -32
WIRE -2736 0 -2736 -32
WIRE -2528 0 -2736 0
WIRE -2160 0 -2160 -32
WIRE -1840 0 -2160 0
WIRE -1392 0 -1392 -32
WIRE -1104 0 -1104 -32
WIRE -1104 0 -1392 0
WIRE -2736 32 -2736 0
WIRE -2160 32 -2160 0
WIRE -1392 32 -1392 0
WIRE -752 32 -784 32
WIRE -3024 80 -3024 -32
WIRE -3024 80 -3312 80
WIRE -2976 80 -3024 80
WIRE -2864 80 -2864 -32
WIRE -2864 80 -2912 80
WIRE -2800 80 -2864 80
WIRE -2464 80 -2464 48
WIRE -2400 80 -2464 80
WIRE -2288 80 -2288 -32
WIRE -2288 80 -2336 80
WIRE -2224 80 -2288 80
WIRE -1776 80 -1776 48
WIRE -1632 80 -1776 80
WIRE -1520 80 -1520 -32
WIRE -1520 80 -1568 80
WIRE -1456 80 -1520 80
WIRE -2864 128 -2864 80
WIRE -2288 128 -2288 80
WIRE -1520 128 -1520 80
WIRE -3312 144 -3312 80
WIRE -2736 176 -2736 128
WIRE -2672 176 -2736 176
WIRE -2560 176 -2592 176
WIRE -2160 176 -2160 128
WIRE -2096 176 -2160 176
WIRE -1984 176 -2016 176
WIRE -1392 176 -1392 128
WIRE -1328 176 -1392 176
WIRE -1216 176 -1248 176
WIRE -2736 192 -2736 176
WIRE -2464 192 -2464 80
WIRE -2160 192 -2160 176
WIRE -1776 192 -1776 80
WIRE -1392 192 -1392 176
WIRE -2560 208 -2560 176
WIRE -1984 208 -1984 176
WIRE -1216 208 -1216 176
WIRE -752 224 -784 224
WIRE -3312 320 -3312 224
WIRE -3024 320 -3312 320
WIRE -2864 320 -2864 208
WIRE -2864 320 -3024 320
WIRE -2736 320 -2736 272
WIRE -2736 320 -2864 320
WIRE -2560 320 -2560 272
WIRE -2560 320 -2736 320
WIRE -2464 320 -2464 272
WIRE -2464 320 -2560 320
WIRE -2288 320 -2288 208
WIRE -2288 320 -2464 320
WIRE -2160 320 -2160 272
WIRE -2160 320 -2288 320
WIRE -1984 320 -1984 272
WIRE -1984 320 -2160 320
WIRE -1776 320 -1776 272
WIRE -1776 320 -1984 320
WIRE -1520 320 -1520 208
WIRE -1520 320 -1776 320
WIRE -1392 320 -1392 272
WIRE -1392 320 -1520 320
WIRE -1216 320 -1216 272
WIRE -1216 320 -1392 320
WIRE -3024 336 -3024 320
FLAG -3024 336 0
FLAG -3136 -32 0
FLAG -752 224 out
IOPIN -752 224 Out
FLAG -3024 80 In
FLAG -752 32 rect
IOPIN -752 32 Out
SYMBOL voltage -3312 128 R0
WINDOW 0 39 58 Left 2
WINDOW 3 -209 13 Left 2
WINDOW 123 -173 51 Left 2
WINDOW 39 0 0 Left 2
SYMATTR InstName Mic
SYMATTR Value SINE(0 0.05m 3k)
SYMATTR Value2 AC 1m
SYMBOL cap -2912 64 R90
WINDOW 0 0 32 VBottom 2
WINDOW 3 32 32 VTop 2
SYMATTR InstName C1
SYMATTR Value 1n
SYMBOL voltage -3136 -144 R0
WINDOW 123 0 0 Left 2
WINDOW 39 0 0 Left 2
SYMATTR InstName V2
SYMATTR Value 5
SYMBOL res -2880 -128 R0
SYMATTR InstName R2
SYMATTR Value 100k
SYMBOL res -2880 112 R0
WINDOW 3 25 104 Left 2
SYMATTR Value 18k
SYMATTR InstName R3
SYMBOL res -2752 176 R0
SYMATTR InstName R5
SYMATTR Value 4k7
SYMBOL cap -2576 208 R0
SYMATTR InstName C2
SYMATTR Value 100n
SYMBOL npn -2800 32 R0
WINDOW 0 14 -9 Left 2
WINDOW 3 39 52 Left 2
SYMATTR InstName Q1
SYMATTR Value 2N3904
SYMBOL res -2752 -128 R0
SYMATTR InstName R4
SYMATTR Value 47k
SYMBOL res -2576 160 R90
WINDOW 0 0 56 VBottom 2
WINDOW 3 32 56 VTop 2
SYMATTR InstName R6
SYMATTR Value 47
SYMBOL res -2304 -128 R0
SYMATTR InstName R8
SYMATTR Value 100k
SYMBOL res -2304 112 R0
WINDOW 3 25 104 Left 2
SYMATTR Value 18k
SYMATTR InstName R9
SYMBOL res -2176 176 R0
SYMATTR InstName R11
SYMATTR Value 4k7
SYMBOL cap -2000 208 R0
SYMATTR InstName C4
SYMATTR Value 100n
SYMBOL npn -2224 32 R0
WINDOW 0 14 -9 Left 2
WINDOW 3 39 44 Left 2
SYMATTR InstName Q3
SYMATTR Value 2N3904
SYMBOL res -2176 -128 R0
SYMATTR InstName R10
SYMATTR Value 47k
SYMBOL res -2000 160 R90
WINDOW 0 0 56 VBottom 2
WINDOW 3 32 56 VTop 2
SYMATTR InstName R12
SYMATTR Value 47
SYMBOL npn -2528 -48 R0
WINDOW 0 13 -10 Left 2
WINDOW 3 39 47 Left 2
SYMATTR InstName Q2
SYMATTR Value 2N3904
SYMBOL res -2480 176 R0
SYMATTR InstName R7
SYMATTR Value 10k
SYMBOL cap -2336 64 R90
WINDOW 0 0 32 VBottom 2
WINDOW 3 32 32 VTop 2
SYMATTR InstName C3
SYMATTR Value 1n
SYMBOL res -3040 -128 R0
SYMATTR InstName R1
SYMATTR Value 10k
SYMBOL Custom\\CD4000\\CD4024B -896 -160 R0
SYMATTR InstName U2
SYMBOL npn -1840 -48 R0
WINDOW 0 13 -10 Left 2
WINDOW 3 39 47 Left 2
SYMATTR InstName Q4
SYMATTR Value 2N3904
SYMBOL res -1792 176 R0
SYMATTR InstName R18
SYMATTR Value 10k
SYMBOL res -1536 -128 R0
SYMATTR InstName R16
SYMATTR Value 100k
SYMBOL res -1536 112 R0
WINDOW 3 25 104 Left 2
SYMATTR Value 18k
SYMATTR InstName R17
SYMBOL res -1408 176 R0
SYMATTR InstName R19
SYMATTR Value 4k7
SYMBOL cap -1232 208 R0
SYMATTR InstName C8
SYMATTR Value 100n
SYMBOL npn -1456 32 R0
WINDOW 0 14 -9 Left 2
WINDOW 3 39 44 Left 2
SYMATTR InstName Q5
SYMATTR Value 2N3904
SYMBOL res -1408 -128 R0
SYMATTR InstName R20
SYMATTR Value 47k
SYMBOL res -1232 160 R90
WINDOW 0 0 56 VBottom 2
WINDOW 3 32 56 VTop 2
SYMATTR InstName R21
SYMATTR Value 47
SYMBOL cap -1568 64 R90
WINDOW 0 0 32 VBottom 2
WINDOW 3 32 32 VTop 2
SYMATTR InstName C9
SYMATTR Value 1n
TEXT -1960 -384 Left 2 !.inc cd4000.lib
TEXT -1976 -320 Left 2 !.tran .02 uic
TEXT -1968 -496 Left 2 ;Sim only
RECTANGLE Normal -1776 -280 -2000 -536 2
