Version 4
SHEET 1 1304 680
WIRE -1552 -432 -1664 -432
WIRE -1392 -432 -1552 -432
WIRE -1264 -432 -1392 -432
WIRE -992 -432 -1264 -432
WIRE -816 -432 -992 -432
WIRE -688 -432 -816 -432
WIRE -1664 -400 -1664 -432
WIRE -1552 -384 -1552 -432
WIRE -1392 -384 -1392 -432
WIRE -1264 -384 -1264 -432
WIRE -816 -384 -816 -432
WIRE -688 -384 -688 -432
WIRE -992 -320 -992 -432
WIRE -1664 -304 -1664 -320
WIRE -1264 -272 -1264 -304
WIRE -1056 -272 -1264 -272
WIRE -688 -272 -688 -304
WIRE -320 -272 -688 -272
WIRE -1264 -240 -1264 -272
WIRE -688 -240 -688 -272
WIRE -16 -208 -96 -208
WIRE -1552 -192 -1552 -304
WIRE -1504 -192 -1552 -192
WIRE -1392 -192 -1392 -304
WIRE -1392 -192 -1440 -192
WIRE -1328 -192 -1392 -192
WIRE -992 -192 -992 -224
WIRE -928 -192 -992 -192
WIRE -816 -192 -816 -304
WIRE -816 -192 -864 -192
WIRE -752 -192 -816 -192
WIRE -1392 -144 -1392 -192
WIRE -816 -144 -816 -192
WIRE -1552 -112 -1552 -192
WIRE -1264 -96 -1264 -144
WIRE -1200 -96 -1264 -96
WIRE -1088 -96 -1120 -96
WIRE -688 -96 -688 -144
WIRE -624 -96 -688 -96
WIRE -512 -96 -544 -96
WIRE -1264 -80 -1264 -96
WIRE -992 -80 -992 -192
WIRE -688 -80 -688 -96
WIRE -1088 -64 -1088 -96
WIRE -512 -64 -512 -96
WIRE -1552 48 -1552 -32
WIRE -1392 48 -1392 -64
WIRE -1392 48 -1552 48
WIRE -1264 48 -1264 0
WIRE -1264 48 -1392 48
WIRE -1088 48 -1088 0
WIRE -1088 48 -1264 48
WIRE -992 48 -992 0
WIRE -992 48 -1088 48
WIRE -816 48 -816 -64
WIRE -816 48 -992 48
WIRE -688 48 -688 0
WIRE -688 48 -816 48
WIRE -512 48 -512 0
WIRE -512 48 -688 48
WIRE -1552 64 -1552 48
FLAG -1552 64 0
FLAG -1664 -304 0
FLAG -16 -208 out
IOPIN -16 -208 Out
FLAG -1552 -192 In
SYMBOL voltage -1552 -128 R0
WINDOW 0 39 58 Left 2
WINDOW 3 -230 45 Left 2
WINDOW 123 -222 82 Left 2
WINDOW 39 0 0 Left 2
SYMATTR InstName Mic
SYMATTR Value SINE(0 1m 20k)
SYMATTR Value2 AC 1m
SYMBOL cap -1440 -208 R90
WINDOW 0 0 32 VBottom 2
WINDOW 3 32 32 VTop 2
SYMATTR InstName C1
SYMATTR Value 1n
SYMBOL voltage -1664 -416 R0
WINDOW 123 0 0 Left 2
WINDOW 39 0 0 Left 2
SYMATTR InstName V2
SYMATTR Value 5
SYMBOL res -1408 -400 R0
SYMATTR InstName R2
SYMATTR Value 100k
SYMBOL res -1408 -160 R0
WINDOW 3 25 104 Left 2
SYMATTR Value 18k
SYMATTR InstName R3
SYMBOL res -1280 -96 R0
SYMATTR InstName R5
SYMATTR Value 4k7
SYMBOL cap -1104 -64 R0
SYMATTR InstName C2
SYMATTR Value 100n
SYMBOL npn -1328 -240 R0
WINDOW 0 14 -9 Left 2
WINDOW 3 39 52 Left 2
SYMATTR InstName Q1
SYMATTR Value 2N3904
SYMBOL res -1280 -400 R0
SYMATTR InstName R4
SYMATTR Value 47k
SYMBOL res -1104 -112 R90
WINDOW 0 0 56 VBottom 2
WINDOW 3 32 56 VTop 2
SYMATTR InstName R6
SYMATTR Value 47
SYMBOL res -832 -400 R0
SYMATTR InstName R8
SYMATTR Value 100k
SYMBOL res -832 -160 R0
WINDOW 3 25 104 Left 2
SYMATTR Value 18k
SYMATTR InstName R9
SYMBOL res -704 -96 R0
SYMATTR InstName R11
SYMATTR Value 4k7
SYMBOL cap -528 -64 R0
SYMATTR InstName C4
SYMATTR Value 100n
SYMBOL npn -752 -240 R0
WINDOW 0 14 -9 Left 2
WINDOW 3 39 44 Left 2
SYMATTR InstName Q3
SYMATTR Value 2N3904
SYMBOL res -704 -400 R0
SYMATTR InstName R10
SYMATTR Value 47k
SYMBOL res -528 -112 R90
WINDOW 0 0 56 VBottom 2
WINDOW 3 32 56 VTop 2
SYMATTR InstName R12
SYMATTR Value 47
SYMBOL npn -1056 -320 R0
WINDOW 0 13 -10 Left 2
WINDOW 3 39 47 Left 2
SYMATTR InstName Q2
SYMATTR Value 2N3904
SYMBOL res -1008 -96 R0
SYMATTR InstName R7
SYMATTR Value 10k
SYMBOL cap -864 -208 R90
WINDOW 0 0 32 VBottom 2
WINDOW 3 32 32 VTop 2
SYMATTR InstName C3
SYMATTR Value 1n
SYMBOL res -1568 -400 R0
SYMATTR InstName R1
SYMATTR Value 10k
SYMBOL Custom\\CD4000\\CD4024B -208 -400 R0
SYMATTR InstName U1
TEXT -584 -656 Left 2 !.inc cd4000.lib
TEXT -568 -616 Left 2 !.tran 5m uic
TEXT -600 -592 Left 2 !;ac oct 100 1 100k
TEXT -616 -704 Left 2 ;Sim only
